data_Benzene_I
_audit_creation_date      '?'
_audit_creation_method    'PLATON <TABLE ACC> option' 

_publ_contact_author_name 'Dr. Paolo Raiteri'

_publ_contact_author_address         
;
'Dept. of Chemistry and Applied Biosciences, ETH Zuerich'
;

_publ_contact_author_email           
;
'praiteri@phys.chem.ethz'
;

_chemical_formula_sum         'C6 H6'
_chemical_formula_weight       78.11
_chemical_formula_moiety
;
C6 H6
;

loop_
_chemical_name_systematic     Benzene

_exptl_special_details
;
I polymorph
;

_symmetry_cell_setting               Orthorhombic
_symmetry_space_group_name_Hall      '-P 2ac 2ab'
_symmetry_space_group_name_H-M       'P b c a'
_symmetry_Int_Tables_number                 61

loop_
_symmetry_equiv_pos_as_xyz          
 x,y,z                         
 1/2-x,-y,1/2+z                
 1/2+x,1/2-y,-z                
 -x,1/2+y,1/2-z                
 -x,-y,-z                      
 1/2+x,y,1/2-z                 
 1/2-x,1/2+y,z                 
 x,1/2-y,1/2+z                 

_cell_length_a            	6.2900
_cell_length_b            	8.1000
_cell_length_c            	9.4900
_cell_angle_alpha         	90
_cell_angle_beta          	90
_cell_angle_gamma         	90
_cell_volume              	483.51
_cell_formula_units_Z     	4
_cell_measurement_pressure 	0

loop_
_atom_type_symbol
_atom_type_radius_bond
C 0.68
H 0.20
loop_
_atom_site_label
_atom_site_type_symbol
_atom_site_fract_x
_atom_site_fract_y
_atom_site_fract_z
C1 C 0.37455  0.09411  0.08869
C2 C 0.49453 -0.03458  0.14358
C3 C 0.38003  0.12942 -0.05470
H1 H 0.27841  0.16521  0.15631
H2 H 0.49095 -0.06003  0.25256
H3 H 0.29432  0.23039 -0.09442
