data_Benzene_IV
_audit_creation_date      '?'
_audit_creation_method    'PLATON <TABLE ACC> option' 

_publ_contact_author_name 'Dr. Paolo Raiteri'

_publ_contact_author_address         
;
'Dept. of Chemistry and Applied Biosciences, ETH Zuerich'
;

_publ_contact_author_email           
;
'praiteri@phys.chem.ethz'
;

_chemical_formula_sum         'C6 H6'
_chemical_formula_weight       78.11
_chemical_formula_moiety
;
C6 H6
;

loop_
_chemical_name_systematic     Benzene

_exptl_special_details
;
III polymorph
;

_symmetry_cell_setting               Orthorhombic
_symmetry_space_group_name_Hall      '-P 2 2ab'
_symmetry_space_group_name_H-M       'P b a m'
_symmetry_Int_Tables_number                 55

loop_
_symmetry_equiv_pos_as_xyz          
 x,y,z                         
 -x,-y,z                       
 1/2+x,1/2-y,-z                
 1/2-x,1/2+y,-z                
 -x,-y,-z                      
 x,y,-z                        
 1/2-x,1/2+y,z                 
 1/2+x,1/2-y,z                 

_cell_length_a                  6.3200
_cell_length_b                  6.8900
_cell_length_c                  9.6100
_cell_angle_alpha               90
_cell_angle_beta                90
_cell_angle_gamma               90
_cell_volume                    418.47
_cell_formula_units_Z           4
_cell_measurement_pressure 	4000000.

loop_
_atom_type_symbol
_atom_type_radius_bond
C 0.68
H 0.20
loop_
_atom_site_label
_atom_site_type_symbol
_atom_site_fract_x
_atom_site_fract_y
_atom_site_fract_z
C1 C  0.45657 0.09364 0.12574
C2 C  0.41641 0.18813 0.00000
C3 C  0.50000 0.50000 0.35380
C4 C  0.32421 0.42994 0.42774
H1 H  0.40566 0.15853 0.22150
H2 H  0.37515 0.33962 0.00000
H3 H  0.50000 0.50000 0.24233
H4 H  0.18956 0.37303 0.37262
