data_Benzene_IIIp
_audit_creation_date      '?'
_audit_creation_method    'PLATON <TABLE ACC> option' 

_publ_contact_author_name 'Dr. Paolo Raiteri'

_publ_contact_author_address         
;
'Dept. of Chemistry and Applied Biosciences, ETH Zuerich'
;

_publ_contact_author_email           
;
'praiteri@phys.chem.ethz'
;

_chemical_formula_sum         'C6 H6'
_chemical_formula_weight       78.11
_chemical_formula_moiety       
;
C6 H6
;

loop_
_chemical_name_systematic     Benzene

_exptl_special_details
;
II polymorph
;

_symmetry_cell_setting                 Monoclinic
_symmetry_space_group_name_Hall      '-C 2yc'
_symmetry_space_group_name_H-M       'C 2/c'
_symmetry_Int_Tables_number                 15

loop_
_symmetry_equiv_pos_as_xyz          
 x,y,z                         
 -x,y,1/2-z                    
 -x,-y,-z                      
 x,-y,1/2+z                    
 1/2+x,1/2+y,z                 
 1/2-x,1/2+y,1/2-z             
 1/2-x,1/2-y,-z                
 1/2+x,1/2-y,1/2+z             

_cell_length_a                  10.9138
_cell_length_b                  5.5866
_cell_length_c                  7.5897
_cell_angle_alpha               90
_cell_angle_beta                108.5820
_cell_angle_gamma               90
_cell_volume                    438.63
_cell_formula_units_Z           4
_cell_measurement_pressure 	0

loop_
_atom_type_symbol
_atom_type_radius_bond
C 0.68
H 0.20
loop_
_atom_site_label
_atom_site_type_symbol
_atom_site_fract_x
_atom_site_fract_y
_atom_site_fract_z
C1  C 0.30230  0.06133 0.42658  
C2  C 0.17161  0.05731 0.41436 
C3  C 0.38046  0.25349 0.51212
H1  H 0.33959 -0.07757 0.35926 
H2  H 0.11202 -0.09305 0.35012
H3  H 0.48024  0.25987 0.51702
