data_Benzene_III
_audit_creation_date      '?'
_audit_creation_method    'PLATON <TABLE ACC> option' 

_publ_contact_author_name 'Dr. Paolo Raiteri'

_publ_contact_author_address         
;
'Dept. of Chemistry and Applied Biosciences, ETH Zuerich'
;

_publ_contact_author_email           
;
'praiteri@phys.chem.ethz'
;

_chemical_formula_sum         'C6 H6'
_chemical_formula_weight       78.11
_chemical_formula_moiety
;
C6 H6
;

loop_
_chemical_name_systematic     Benzene

_exptl_special_details
;
III polymorph
;

_symmetry_cell_setting                 Monoclinic
_symmetry_space_group_name_Hall      '-P 2ybc'
_symmetry_space_group_name_H-M       'P 21/c'
_symmetry_Int_Tables_number                 14

loop_
_symmetry_equiv_pos_as_xyz          
 x,y,z                         
 -x,1/2+y,1/2-z                
 -x,-y,-z                      
 x,1/2-y,1/2+z                 

_cell_length_a                  5.7220
_cell_length_b                  5.7080
_cell_length_c                  7.9007
_cell_angle_alpha               90
_cell_angle_beta                112.9280
_cell_angle_gamma               90
_cell_volume                    237.66
_cell_formula_units_Z           2
_cell_measurement_pressure 	0

loop_
_atom_type_symbol
_atom_type_radius_bond
C 0.68
H 0.20
loop_
_atom_site_label
_atom_site_type_symbol
_atom_site_fract_x
_atom_site_fract_y
_atom_site_fract_z
C1  C  0.11965 0.68406 0.11968   
C2  C -0.14399 0.68900 0.02037 
C3  C  0.26409 0.49526 0.09981 
H1  H  0.21211 0.82575 0.21199   
H2  H -0.25440 0.83426 0.03628 
H3  H  0.46674 0.49148 0.17611 
