data_Benzene_V
_audit_creation_date      '?'
_audit_creation_method    'PLATON <TABLE ACC> option' 

_publ_contact_author_name 'Dr. Paolo Raiteri'

_publ_contact_author_address         
;
'Dept. of Chemistry and Applied Biosciences, ETH Zuerich'
;

_publ_contact_author_email           
;
'praiteri@phys.chem.ethz'
;

_chemical_formula_sum         'C6 H6'
_chemical_formula_weight       78.11
_chemical_formula_moiety       
;
C6 H6
;

loop_
_chemical_name_systematic     Benzene

_exptl_special_details
;
II polymorph
;

_symmetry_cell_setting                 Monoclinic
 _symmetry_space_group_name_Hall      'P 2yb'
_symmetry_space_group_name_H-M       'P 21'
_symmetry_Int_Tables_number                  4

loop_
_symmetry_equiv_pos_as_xyz          
 x,y,z                         
 -x,1/2+y,-z                   

_cell_length_a                  5.9030
_cell_length_b                  4.2900
_cell_length_c                  9.6400
_cell_angle_alpha               90
_cell_angle_beta                95.9100
_cell_angle_gamma               90
_cell_volume                    242.82
_cell_formula_units_Z           2
_cell_measurement_pressure 	0

loop_
_atom_type_symbol
_atom_type_radius_bond
C 0.68
H 0.20
loop_
_atom_site_label
_atom_site_type_symbol
_atom_site_fract_x
_atom_site_fract_y
_atom_site_fract_z
C1  C  0.07630 0.64103 0.21310
C2  C  0.36225 0.37040 0.36681
C3  C  0.15021 0.51771 0.34462
C4  C  0.50003 0.34196 0.25756
C5  C  0.42595 0.46527 0.12603
C6  C  0.21391 0.61259 0.10280
H1  H -0.08379 0.76480 0.19720
H2  H  0.42118 0.28438 0.46907
H3  H  0.04190 0.52984 0.42690
H4  H  0.66012 0.21795 0.27347
H5  H  0.53409 0.45081 0.04177
H6  H  0.15498 0.70093 0.00148
